/*--------------------------------*- C++ -*----------------------------------*\
| =========                 |                                                 |
| \\      /  F ield         | OpenFOAM Extend Project: Open Source CFD        |
|  \\    /   O peration     | Version:  1.6-ext                               |
|   \\  /    A nd           | Web:      www.extend-project.de                 |
|    \\/     M anipulation  |                                                 |
\*---------------------------------------------------------------------------*/
FoamFile
{
    version     2.0;
    format      ascii;
    class       dictionary;
    object      sampleDict;
}
// * * * * * * * * * * * * * * * * * * * * * * * * * * * * * * * * * * * * * //

libs
(
    "libsampling.so"
);

type sets;

interpolationScheme cellPointFace;

setFormat     raw;

sets
(
    myCloud
    {
        type            cloud;
        axis                z;
        points
        (
            (0 0 0.000)
            (0 0 0.055)
            (0 0 0.105)
            (0 0 0.155)
            (0 0 0.205)
            (0 0 0.255)
            (0 0 0.305)
            (0 0 0.355)
            (0 0 0.405)
            (0 0 0.455)
            (0 0 0.505)
            (0 0 0.555)
            (0 0 0.605)
            (0 0 0.655)
            (0 0 0.705)
            (0 0 0.755)
            (0 0 0.805)
            (0 0 0.855)
            (0 0 0.905)
            (0 0 0.955)
            (0 0 0.985)
            (0 0 1.000)
        );
    }
);

fields
(
    wa
    wb
    rho_a
    rho_b
    rho
    U
    U_ver
    Na
    Nb
    ja
    jb


);


// ************************************************************************* //
