/*--------------------------------*- C++ -*----------------------------------*\
| =========                 |                                                 |
| \\      /  F ield         | OpenFOAM: The Open Source CFD Toolbox           |
|  \\    /   O peration     | Version:  v2012                                 |
|   \\  /    A nd           | Website:  www.openfoam.com                      |
|    \\/     M anipulation  |                                                 |
\*---------------------------------------------------------------------------*/
FoamFile
{
    version     2.0;
    format      ascii;
    class       polyBoundaryMesh;
    location    "constant/polyMesh";
    object      boundary;
}
// * * * * * * * * * * * * * * * * * * * * * * * * * * * * * * * * * * * * * //

4
(
    bottom
    {
        type            patch;
        nFaces          1;
        startFace       299;
    }
    top
    {
        type            patch;
        nFaces          1;
        startFace       300;
    }
    sidesX
    {
        type            empty;
        inGroups        1(empty);
        nFaces          600;
        startFace       301;
    }
    sidesY
    {
        type            empty;
        inGroups        1(empty);
        nFaces          600;
        startFace       901;
    }
)

// ************************************************************************* //
